Version 4
SHEET 1 3188 848
WIRE -368 -432 -368 -464
WIRE -528 -400 -528 -448
WIRE -368 -288 -368 -352
WIRE -528 -256 -528 -320
WIRE 64 -192 -64 -192
WIRE 176 -192 176 -256
WIRE 496 -192 496 -240
WIRE 592 -192 496 -192
WIRE 496 -160 496 -192
WIRE 448 -144 304 -144
WIRE 592 -112 592 -192
WIRE 592 -112 496 -112
WIRE 64 -96 -16 -96
WIRE -480 -80 -480 -128
WIRE -528 -48 -592 -48
WIRE -352 -48 -416 -48
WIRE 176 -48 176 -96
WIRE -352 -16 -416 -16
WIRE -528 0 -592 0
WIRE 496 0 496 -64
WIRE 704 0 496 0
WIRE 1552 0 704 0
WIRE 1680 0 1552 0
WIRE 1760 0 1680 0
WIRE -352 16 -416 16
WIRE -528 48 -592 48
WIRE -352 48 -416 48
WIRE 704 48 704 0
WIRE 1552 48 1552 0
WIRE 1680 48 1680 0
WIRE -480 128 -480 80
WIRE -224 176 -224 128
WIRE 1552 176 1552 112
WIRE 1680 176 1680 128
WIRE 1680 176 1552 176
WIRE -16 208 -16 -96
WIRE 336 208 -16 208
WIRE 704 208 704 128
WIRE 704 208 336 208
WIRE 1088 208 704 208
WIRE 1472 208 1088 208
WIRE 1680 208 1680 176
WIRE -224 304 -224 256
WIRE -80 304 -80 144
WIRE 336 304 336 208
WIRE 704 304 704 208
WIRE 1088 304 1088 208
WIRE 1472 304 1472 208
WIRE -592 352 -592 272
WIRE -496 352 -496 272
WIRE -368 352 -368 272
WIRE -112 464 -112 416
WIRE 336 464 336 384
WIRE 704 464 704 384
WIRE 1088 464 1088 384
WIRE 1472 464 1472 384
WIRE -592 480 -592 432
WIRE -496 480 -496 432
WIRE -496 480 -592 480
WIRE -368 480 -368 432
WIRE -368 480 -496 480
WIRE 480 512 336 512
WIRE 848 512 704 512
WIRE 1232 512 1088 512
WIRE 1616 512 1472 512
WIRE -496 544 -496 480
WIRE 288 544 176 544
WIRE 656 544 544 544
WIRE 1040 544 928 544
WIRE 1424 544 1312 544
WIRE 336 592 336 560
WIRE 480 592 480 512
WIRE 480 592 336 592
WIRE 704 592 704 560
WIRE 848 592 848 512
WIRE 848 592 704 592
WIRE 1088 592 1088 560
WIRE 1232 592 1232 512
WIRE 1232 592 1088 592
WIRE 1472 592 1472 560
WIRE 1616 592 1616 512
WIRE 1616 592 1472 592
WIRE -112 608 -112 544
WIRE 336 672 336 592
WIRE 704 672 704 592
WIRE 1088 672 1088 592
WIRE 1472 672 1472 592
FLAG -224 304 0
FLAG -224 128 Vdd
FLAG -80 304 0
FLAG -80 144 Vss
FLAG -528 -256 0
FLAG -528 -448 Vref
FLAG 1760 0 VOUT
FLAG 496 -240 Vdd
FLAG -368 -288 0
FLAG -368 -464 Vb
FLAG -352 -48 I0
FLAG -352 -16 I1
FLAG -352 16 I2
FLAG -352 48 I3
FLAG -496 544 0
FLAG -592 272 EN
FLAG -592 -48 EN
FLAG -496 272 S0
FLAG -592 0 S0
FLAG -368 272 S1
FLAG -592 48 S1
FLAG -480 -128 Vd
FLAG -480 128 Vss
FLAG -112 608 0
FLAG -112 416 Vd
FLAG 336 672 0
FLAG 176 544 I0
FLAG 1680 208 0
FLAG -64 -192 Vref
FLAG 176 -256 Vdd
FLAG 176 -48 Vss
FLAG 704 672 0
FLAG 544 544 I1
FLAG 1088 672 0
FLAG 928 544 I2
FLAG 1472 672 0
FLAG 1312 544 I3
DATAFLAG 752 0 ""
DATAFLAG 368 -144 ""
DATAFLAG 304 208 ""
DATAFLAG 608 544 ""
SYMBOL voltage -224 160 R0
WINDOW 123 24 44 Left 2
WINDOW 39 0 0 Left 0
SYMATTR InstName V1
SYMATTR Value {Vc}
SYMBOL voltage -528 -416 R0
WINDOW 123 0 0 Left 0
WINDOW 39 0 0 Left 0
SYMATTR InstName V2
SYMATTR Value 0.7
SYMBOL pmos4 448 -64 M180
SYMATTR Value2 l=360n w={wp} m=100
SYMATTR InstName M1
SYMBOL voltage -368 -448 R0
WINDOW 123 0 0 Left 0
WINDOW 39 0 0 Left 0
SYMATTR InstName V3
SYMATTR Value 0.9
SYMBOL DEMUX -480 0 R0
SYMATTR InstName X2
SYMBOL voltage -592 336 R0
WINDOW 123 0 0 Left 0
WINDOW 39 0 0 Left 0
SYMATTR InstName V4
SYMATTR Value 1
SYMBOL voltage -496 336 R0
WINDOW 123 0 0 Left 0
WINDOW 39 0 0 Left 0
SYMATTR InstName V5
SYMATTR Value {d%2}
SYMBOL voltage -368 336 R0
WINDOW 123 0 0 Left 0
WINDOW 39 0 0 Left 0
SYMATTR InstName V6
SYMATTR Value {(d/2)%2}
SYMBOL voltage -112 448 R0
WINDOW 123 0 0 Left 0
WINDOW 39 0 0 Left 0
SYMATTR InstName V7
SYMATTR Value 1
SYMBOL res 688 32 R0
SYMATTR InstName R1
SYMATTR Value 50k
SYMBOL res 320 288 R0
SYMATTR InstName R2
SYMATTR Value 29.7k
SYMBOL nmos4 288 464 R0
SYMATTR Value2 l=360n w=225n
SYMATTR InstName M2
SYMBOL current 1680 48 R0
WINDOW 123 0 0 Left 0
WINDOW 39 0 0 Left 0
SYMATTR InstName I1
SYMATTR Value PWL(0 100u 2m 100u 2.01m 10m 4m 10m 4.001m 100m 6m 100m 6.01m 300m 8m 300m)
SYMBOL Error_Op_Amp 144 -112 M180
SYMATTR InstName X1
SYMBOL res 688 288 R0
SYMATTR InstName R3
SYMATTR Value 58.731502K
SYMBOL nmos4 656 464 R0
SYMATTR Value2 l=360n w=225n
SYMATTR InstName M3
SYMBOL res 1072 288 R0
SYMATTR InstName R4
SYMATTR Value 106.33803K
SYMBOL nmos4 1040 464 R0
SYMATTR Value2 l=360n w=225n
SYMATTR InstName M4
SYMBOL res 1456 288 R0
SYMATTR InstName R5
SYMATTR Value 340.53458K
SYMBOL nmos4 1424 464 R0
SYMATTR Value2 l=360n w=225n
SYMATTR InstName M5
SYMBOL cap 1536 48 R0
SYMATTR InstName C1
SYMATTR Value 10p
TEXT -336 -704 Left 2 !.param wp 66.179478µ
TEXT 864 -248 Left 2 ;.op
TEXT -328 -648 Left 2 !.param wn 225n
TEXT 2112 -24 Left 2 !;.step param wp 50u 400u 0.18u
TEXT 1016 -344 Left 2 ;.dc V1 0.7 4 0.1
TEXT 2336 56 Left 2 !.param r 1k
TEXT 2136 160 Left 2 !;.step param r 320k 380k 0.5k
TEXT 696 -424 Left 2 ;PWL(0 0 0.001m 50m 2m 50m 2.001m 100m 4m 100m 4.001m 200m 6m 200m 6.001m 400m 8m 400m)
TEXT 0 816 Left 2 ;PWL(0 100u 2m 100u 2.01m 10m 4m 10m 4.001m 100m 6m 100m 6.01m 300m 8m 300m)
TEXT 2112 416 Left 2 !;.step param Vc 0.9 4 0.01
TEXT 304 -464 Left 2 !.param Vc 1.8
TEXT 272 -608 Left 2 !.param d 0\n;.step param d list 0 1 2 3
TEXT 2160 56 Left 2 !.tran 9m
TEXT 2136 -288 Left 2 !.include C:\\Users\\shahz\\Downloads\\tsmc180.txt
